[General]
description = "IEEE 80211 mac with scalar radio"
network = UsingCSMACAwithRTS
sim-time-limit = 400s
#cpu-time-limit = 600s
debug-on-errors = true
record-eventlog = true
tkenv-plugin-path = ../../../etc/plugins
cmdenv-express-mode = true
num-rngs = 4
#repeat=3
#seed-set = 3
#total-stack = 2MiB
#cmdenv-event-banners = true
#debug-statistics-recording = true
#output-scalar-file = results.sca
#output-scalar-precision = 3
#output-vector-precision = 4
#**.scalar-recording = true
#**.vector-recording = true
#snapshot-file = omnetpp.sna
#**.udpApp[*].**.scalar-recording = true
#**.H{1..4}.udpApp[0].typename = "UDPBasicBurst"
#UsingCSMACAwithRTS.result-recording-modes = mean
#**.H{1}.udpApp[*].sentPk.result-recording-modes = count 

UsingCSMACAwithRTS.configurator.addDefaultRoutes = true
UsingCSMACAwithRTS.configurator.addStaticRoutes = true
UsingCSMACAwithRTS.configurator.addSubnetRoutes = true
UsingCSMACAwithRTS.configurator.assignAddresses = true
UsingCSMACAwithRTS.configurator.assignDisjunctSubnetAddresses = true
UsingCSMACAwithRTS.configurator.config = xml("<config><interface hosts='**' address='10.x.x.x' netmask='255.x.x.x'/></config>")
UsingCSMACAwithRTS.configurator.dumpAddresses = false
UsingCSMACAwithRTS.configurator.dumpConfig = ""
UsingCSMACAwithRTS.configurator.dumpLinks = false
UsingCSMACAwithRTS.configurator.dumpRoutes = false
UsingCSMACAwithRTS.configurator.dumpTopology = false
UsingCSMACAwithRTS.configurator.minLinkWeight = 1E-3
UsingCSMACAwithRTS.configurator.optimizeRoutes = true
#UsingCSMACAwithRTS.host[*].energyGenerator.generationInterval = exponential(25s)
#UsingCSMACAwithRTS.host[*].energyGenerator.powerGeneration = 4mW
#UsingCSMACAwithRTS.host[*].energyGenerator.sleepInterval = exponential(25s)
UsingCSMACAwithRTS.host[*].energyGeneratorType = ""
#UsingCSMACAwithRTS.host[*].energyManagement.nodeShutdownCapacity = 0.1 * energyStorage.nominalCapacity
#UsingCSMACAwithRTS.host[*].energyManagement.nodeStartCapacity = 0.5 * energyStorage.nominalCapacity
UsingCSMACAwithRTS.host[*].energyManagementType = "SimpleEpEnergyManagement"
UsingCSMACAwithRTS.host[*].energyStorage.initialCapacity = uniform(0.1 * energyStorage.nominalCapacity, energyStorage.nominalCapacity)
UsingCSMACAwithRTS.host[*].energyStorage.nominalCapacity = 0.05J
UsingCSMACAwithRTS.host[*].energyStorageType = "SimpleEpEnergyStorage"
UsingCSMACAwithRTS.host[*].eth[*].csmacdSupport = false
UsingCSMACAwithRTS.host[*].eth[*].egressTCType = ""
UsingCSMACAwithRTS.host[*].eth[*].encap.interfaceTableModule = absPath(interfaceTableModule)
UsingCSMACAwithRTS.host[*].eth[*].encap.useSNAP = false
UsingCSMACAwithRTS.host[*].eth[*].encapType = "EtherEncap"
UsingCSMACAwithRTS.host[*].eth[*].ingressTCType = ""
UsingCSMACAwithRTS.host[*].eth[*].interfaceTableModule = absPath(".interfaceTable")
#UsingCSMACAwithRTS.host[*].eth[*].mac.address = 
#UsingCSMACAwithRTS.host[*].eth[*].mac.duplexMode = 
#UsingCSMACAwithRTS.host[*].eth[*].mac.mtu = 
#UsingCSMACAwithRTS.host[*].eth[*].mac.promiscuous = 
#UsingCSMACAwithRTS.host[*].eth[*].mac.queueModule = (queueType == "" ? "" : "^.queue")
#UsingCSMACAwithRTS.host[*].eth[*].mac.txQueueLimit = (queueType == "" ? 10000 : 1)
#UsingCSMACAwithRTS.host[*].eth[*].macType = csmacdSupport ? "EtherMAC" : "EtherMACFullDuplex"
UsingCSMACAwithRTS.host[*].eth[*].numInputHooks = 0
UsingCSMACAwithRTS.host[*].eth[*].numOutputHooks = 0
UsingCSMACAwithRTS.host[*].eth[*].qeue.pauseQueue.queueName = "pauseQueue"
#UsingCSMACAwithRTS.host[*].eth[*].queue.dataQueueType = queueType
UsingCSMACAwithRTS.host[*].eth[*].queue.pauseQueue.frameCapacity = 100
UsingCSMACAwithRTS.host[*].eth[*].queueType = ""
UsingCSMACAwithRTS.host[*].forwarding = false
#UsingCSMACAwithRTS.host[*].hasSctp = numSctpApps > 0 
UsingCSMACAwithRTS.host[*].hasStatus = true
#UsingCSMACAwithRTS.host[*].hasTcp = numTcpApps > 0 
#UsingCSMACAwithRTS.host[*].hasTun = numTunInterfaces > 0 
#UsingCSMACAwithRTS.host[*].hasUdp = numUdpApps > 0 
UsingCSMACAwithRTS.host[*].interfaceTable.displayAddresses = false
UsingCSMACAwithRTS.host[*].lo0.interfaceTableModule = absPath(".interfaceTable")
#UsingCSMACAwithRTS.host[*].lo0.lo.interfaceTableModule = absPath(interfaceTableModule) 
UsingCSMACAwithRTS.host[*].lo0.lo.mtu = 4470B
UsingCSMACAwithRTS.host[*].lo0.numInputHooks = 0
UsingCSMACAwithRTS.host[*].lo0.numOutputHooks = 0
UsingCSMACAwithRTS.host[*].mobility.changeAngleBy = normal(0deg, 30deg)
UsingCSMACAwithRTS.host[*].mobility.changeInterval = truncnormal(2s, 0.5s)
UsingCSMACAwithRTS.host[*].mobility.constraintAreaMaxX = 60m
UsingCSMACAwithRTS.host[*].mobility.constraintAreaMaxY = 40m
UsingCSMACAwithRTS.host[*].mobility.constraintAreaMaxZ = 0m
UsingCSMACAwithRTS.host[*].mobility.constraintAreaMinX = 0m
UsingCSMACAwithRTS.host[*].mobility.constraintAreaMinY = 0m
UsingCSMACAwithRTS.host[*].mobility.constraintAreaMinZ = 0m
UsingCSMACAwithRTS.host[*].mobility.coordinateSystemModule = ""
UsingCSMACAwithRTS.host[*].mobility.initFromDisplayString = false
#UsingCSMACAwithRTS.host[*].mobility.initialX = uniform(constraintAreaMinX, constraintAreaMaxX) 
#UsingCSMACAwithRTS.host[*].mobility.initialY = uniform(constraintAreaMinY, constraintAreaMaxY) 
#UsingCSMACAwithRTS.host[*].mobility.initialZ = nanToZero(uniform(constraintAreaMinZ, constraintAreaMaxZ)) 
UsingCSMACAwithRTS.host[*].mobility.rng-0 = 1
UsingCSMACAwithRTS.host[*].mobility.speed = truncnormal(20mps, 8mps)
UsingCSMACAwithRTS.host[*].mobility.startAngle = uniform(0deg, 360deg)
UsingCSMACAwithRTS.host[*].mobility.updateInterval = 100ms
UsingCSMACAwithRTS.host[*].mobility.visualizeMobility = true
UsingCSMACAwithRTS.host[*].mobility.visualRepresentation = "^"
UsingCSMACAwithRTS.host[*].mobilityType = "MassMobility"
UsingCSMACAwithRTS.host[*].multicastForwarding = false
UsingCSMACAwithRTS.host[*].networkLayer.arp.cacheTimeout = 120s
#UsingCSMACAwithRTS.host[*].networkLayer.arp.interfaceTableModule = absPath(interfaceTableModule) 
#UsingCSMACAwithRTS.host[*].networkLayer.arp.respondToProxyARP = proxyARP
UsingCSMACAwithRTS.host[*].networkLayer.arp.retryCount = 3
UsingCSMACAwithRTS.host[*].networkLayer.arp.retryTimeout = 1s
#UsingCSMACAwithRTS.host[*].networkLayer.arp.routingTableModule = absPath(routingTableModule) 
UsingCSMACAwithRTS.host[*].networkLayer.arpType = "GlobalARP"
UsingCSMACAwithRTS.host[*].networkLayer.configurator.configureRoutingTable = true
#UsingCSMACAwithRTS.host[*].networkLayer.configurator.interfaceTableModule = absPath(interfaceTableModule) 
UsingCSMACAwithRTS.host[*].networkLayer.configurator.networkConfiguratorModule = "configurator"
#UsingCSMACAwithRTS.host[*].networkLayer.icmp.interfaceTableModule = absPath(interfaceTableModule) 
#UsingCSMACAwithRTS.host[*].networkLayer.icmp.routingTableModule = absPath(routingTableModule) 
UsingCSMACAwithRTS.host[*].networkLayer.igmp.enabled = true
#UsingCSMACAwithRTS.host[*].networkLayer.igmp.groupMembershipInterval = (robustnessVariable * queryInterval) + queryResponseInterval 
#UsingCSMACAwithRTS.host[*].networkLayer.igmp.interfaceTableModule = absPath(interfaceTableModule) 
#UsingCSMACAwithRTS.host[*].networkLayer.igmp.lastMemberQueryCount = robustnessVariable 
UsingCSMACAwithRTS.host[*].networkLayer.igmp.lastMemberQueryInterval = 1s
#UsingCSMACAwithRTS.host[*].networkLayer.igmp.otherQuerierPresentInterval = (robustnessVariable * queryInterval) + (queryResponseInterval / 2) 
UsingCSMACAwithRTS.host[*].networkLayer.igmp.queryInterval = 125s
UsingCSMACAwithRTS.host[*].networkLayer.igmp.queryResponseInterval = 10s
UsingCSMACAwithRTS.host[*].networkLayer.igmp.robustnessVariable = 2
#UsingCSMACAwithRTS.host[*].networkLayer.igmp.routingTableModule = absPath(routingTableModule) 
#UsingCSMACAwithRTS.host[*].networkLayer.igmp.startupQueryCount = robustnessVariable 
#UsingCSMACAwithRTS.host[*].networkLayer.igmp.startupQueryInterval = queryInterval / 4 
UsingCSMACAwithRTS.host[*].networkLayer.igmp.unsolicitedReportInterval = 10s
UsingCSMACAwithRTS.host[*].networkLayer.igmpType = "IGMPv2"
UsingCSMACAwithRTS.host[*].networkLayer.interfaceTableModule = absPath(".interfaceTable")
UsingCSMACAwithRTS.host[*].networkLayer.ip.arpModule = absPath(".arp")
UsingCSMACAwithRTS.host[*].networkLayer.ip.forceBroadcast = false
UsingCSMACAwithRTS.host[*].networkLayer.ip.fragmentTimeout = 60s
UsingCSMACAwithRTS.host[*].networkLayer.ip.icmpModule = absPath(".icmp")
#UsingCSMACAwithRTS.host[*].networkLayer.ip.interfaceTableModule = absPath(interfaceTableModule) 
UsingCSMACAwithRTS.host[*].networkLayer.ip.multicastTimeToLive = 32
UsingCSMACAwithRTS.host[*].networkLayer.ip.procDelay = 0s
#UsingCSMACAwithRTS.host[*].networkLayer.ip.routingTableModule = absPath(routingTableModule) 
UsingCSMACAwithRTS.host[*].networkLayer.ip.timeToLive = 32
UsingCSMACAwithRTS.host[*].networkLayer.ip.useProxyARP = true
UsingCSMACAwithRTS.host[*].networkLayer.proxyARP = false
#UsingCSMACAwithRTS.host[*].networkLayer.routingTableModule = routingTableType != "" ? absPath(".routingTable") : "" 
UsingCSMACAwithRTS.host[*].networkLayerType = "IPv4NetworkLayer"
UsingCSMACAwithRTS.host[*].numExtInterfaces = 0
UsingCSMACAwithRTS.host[*].numPcapRecorders = 0
UsingCSMACAwithRTS.host[*].numRadios = 1
UsingCSMACAwithRTS.host[*].numSctpApps = 0
UsingCSMACAwithRTS.host[*].numTcpApps = 0
UsingCSMACAwithRTS.host[*].numTunInterfaces = 0
UsingCSMACAwithRTS.host[*].numUdpApps = 1
UsingCSMACAwithRTS.host[*].osgModel = ""
UsingCSMACAwithRTS.host[*].osgModelColor = ""
UsingCSMACAwithRTS.host[*].pcapRecorder[*].alwaysFlush = false
UsingCSMACAwithRTS.host[*].pcapRecorder[*].dumpBadFrames = true
UsingCSMACAwithRTS.host[*].pcapRecorder[*].moduleNamePatterns = "wlan[*] eth[*] ppp[*] ext[*]"
UsingCSMACAwithRTS.host[*].pcapRecorder[*].pcapFile = ""
UsingCSMACAwithRTS.host[*].pcapRecorder[*].receivingSignalNames = "packetReceivedFromLower"
UsingCSMACAwithRTS.host[*].pcapRecorder[*].sendingSignalNames = "packetSentToLower"
UsingCSMACAwithRTS.host[*].pcapRecorder[*].snaplen = 65535
UsingCSMACAwithRTS.host[*].pcapRecorder[*].verbose = false
#UsingCSMACAwithRTS.host[*].pingApp[*].continuous = false 
#UsingCSMACAwithRTS.host[*].pingApp[*].count = -1 
#UsingCSMACAwithRTS.host[*].pingApp[*].hopLimit = 32 
#UsingCSMACAwithRTS.host[*].pingApp[*].packetSize = 56B 
#UsingCSMACAwithRTS.host[*].pingApp[*].printPing = true 
#UsingCSMACAwithRTS.host[*].pingApp[*].sendInterval = 1s 
#UsingCSMACAwithRTS.host[*].pingApp[*].sleepDuration = 0s 
#UsingCSMACAwithRTS.host[*].pingApp[*].srcAddr = "" 
#UsingCSMACAwithRTS.host[*].pingApp[*].startTime = uniform(0s, this.sleepDuration + this.sendInterval) 
#UsingCSMACAwithRTS.host[*].pingApp[*].stopTime = -1s 
UsingCSMACAwithRTS.host[*].ppp[*].egressTCType = ""
UsingCSMACAwithRTS.host[*].ppp[*].ingressTCType = ""
UsingCSMACAwithRTS.host[*].ppp[*].interfaceTableModule = absPath(".interfaceTable")
UsingCSMACAwithRTS.host[*].ppp[*].numInputHooks = 0
UsingCSMACAwithRTS.host[*].ppp[*].numOutputHooks = 0
UsingCSMACAwithRTS.host[*].ppp[*].ppp.interfaceTableModule = absPath(interfaceTableModule)
UsingCSMACAwithRTS.host[*].ppp[*].ppp.mtu = 4470B
#UsingCSMACAwithRTS.host[*].ppp[*].ppp.queueModule = (queueType == "" ? "" : "^.queue")
#UsingCSMACAwithRTS.host[*].ppp[*].ppp.txQueueLimit = (queueType == "" ? 10000 : 1)
UsingCSMACAwithRTS.host[*].ppp[*].queue.frameCapacity = 100
UsingCSMACAwithRTS.host[*].ppp[*].queue.queueName = "l2queue"
UsingCSMACAwithRTS.host[*].ppp[*].queueType = "DropTailQueue"
#UsingCSMACAwithRTS.host[*].routingTable.forwarding = forwarding
UsingCSMACAwithRTS.host[*].routingTable.interfaceTableModule = absPath(".interfaceTable")
#UsingCSMACAwithRTS.host[*].routingTable.multicastForwarding = multicastForwarding
UsingCSMACAwithRTS.host[*].routingTable.netmaskRoutes = "*"
UsingCSMACAwithRTS.host[*].routingTable.routerId = "auto"
UsingCSMACAwithRTS.host[*].routingTable.routingFile = ""
UsingCSMACAwithRTS.host[*].routingTable.useAdminDist = false
UsingCSMACAwithRTS.host[*].routingTableType = "IPv4RoutingTable"
UsingCSMACAwithRTS.host[*].sctpType = firstAvailableOrEmpty("SCTP")
UsingCSMACAwithRTS.host[*].status.initialStatus = "UP"
UsingCSMACAwithRTS.host[*].tcpType = firstAvailableOrEmpty("TCP", "TCP_lwIP", "TCP_NSC")
UsingCSMACAwithRTS.host[*].tun[*].interfaceTableModule = absPath(".interfaceTable")
UsingCSMACAwithRTS.host[*].tun[*].mtu = 1500B
UsingCSMACAwithRTS.host[*].udpType = firstAvailableOrEmpty("UDP")
UsingCSMACAwithRTS.host[*].wlan[*]._agentNeeded = (mgmtType == "Ieee80211MgmtSTA")
UsingCSMACAwithRTS.host[*].wlan[*].agent.activeScan = true
UsingCSMACAwithRTS.host[*].wlan[*].agent.associationTimeout = 5s
UsingCSMACAwithRTS.host[*].wlan[*].agent.authenticationTimeout = 5s
UsingCSMACAwithRTS.host[*].wlan[*].agent.channelsToScan = ""  # "" means all
UsingCSMACAwithRTS.host[*].wlan[*].agent.default_ssid = "SSID"
UsingCSMACAwithRTS.host[*].wlan[*].agent.interfaceTableModule = absPath(interfaceTableModule)
UsingCSMACAwithRTS.host[*].wlan[*].agent.maxChannelTime = 300ms
UsingCSMACAwithRTS.host[*].wlan[*].agent.minChannelTime = 150ms
UsingCSMACAwithRTS.host[*].wlan[*].agent.probeDelay = 100ms
UsingCSMACAwithRTS.host[*].wlan[*].agent.startingTime = -1s
UsingCSMACAwithRTS.host[*].wlan[*].bitrate = ${bitrate = 6,9,12,18,24,36,48,54}Mbps
UsingCSMACAwithRTS.host[*].wlan[*].classifierType = ""
#UsingCSMACAwithRTS.host[*].wlan[*].energySourceModule = energyStorageType != "" ? absPath(".energyStorage") : "" 
UsingCSMACAwithRTS.host[*].wlan[*].interfaceTableModule = absPath(".interfaceTable")
UsingCSMACAwithRTS.host[*].wlan[*].mac.address = "auto"
UsingCSMACAwithRTS.host[*].wlan[*].mac.AIFSN = 2
UsingCSMACAwithRTS.host[*].wlan[*].mac.AIFSN0 = 7
UsingCSMACAwithRTS.host[*].wlan[*].mac.AIFSN1 = 3
UsingCSMACAwithRTS.host[*].wlan[*].mac.AIFSN2 = 2
UsingCSMACAwithRTS.host[*].wlan[*].mac.AIFSN3 = 2
UsingCSMACAwithRTS.host[*].wlan[*].mac.basicBitrate = 2Mbps
UsingCSMACAwithRTS.host[*].wlan[*].mac.bitrate = bitrate
UsingCSMACAwithRTS.host[*].wlan[*].mac.controlBitrate = 2Mbps
UsingCSMACAwithRTS.host[*].wlan[*].mac.cwMaxData = -1
UsingCSMACAwithRTS.host[*].wlan[*].mac.cwMinData = -1
UsingCSMACAwithRTS.host[*].wlan[*].mac.dataBitrate = 54Mbps
UsingCSMACAwithRTS.host[*].wlan[*].mac.dcf.channelAccess.contention.backoffOptimization = true
UsingCSMACAwithRTS.host[*].wlan[*].mac.dcf.channelAccess.contention.initialChannelBusy = true
#UsingCSMACAwithRTS.host[*].wlan[*].mac.dcf.channelAccess.cwMax = cwMaxData
#UsingCSMACAwithRTS.host[*].wlan[*].mac.dcf.channelAccess.cwMin = cwMinData
UsingCSMACAwithRTS.host[*].wlan[*].mac.dcf.channelAccess.difsTime = -1s
UsingCSMACAwithRTS.host[*].wlan[*].mac.dcf.channelAccess.rateSelectionModule = "^.rateSelection"
#UsingCSMACAwithRTS.host[*].wlan[*].mac.dcf.channelAccess.rxModule = "^." + rxModule
UsingCSMACAwithRTS.host[*].wlan[*].mac.dcf.ctsPolicy.rateSelectionModule = "^.rateSelection"
#UsingCSMACAwithRTS.host[*].wlan[*].mac.dcf.ctsPolicy.rxModule = "^." + rxModule
#UsingCSMACAwithRTS.host[*].wlan[*].mac.dcf.maxQueueSize = maxQueueSize
UsingCSMACAwithRTS.host[*].wlan[*].mac.dcf.originatorAckPolicy.ackTimeout = -1s
UsingCSMACAwithRTS.host[*].wlan[*].mac.dcf.originatorAckPolicy.rateSelectionModule = "^.rateSelection"
UsingCSMACAwithRTS.host[*].wlan[*].mac.dcf.originatorMacDataService.fragmentationPolicy.fragmentationThreshold = 1500B
UsingCSMACAwithRTS.host[*].wlan[*].mac.dcf.originatorMacDataService.fragmentationPolicyModuleType = "BasicFragmentationPolicy"
UsingCSMACAwithRTS.host[*].wlan[*].mac.dcf.originatorProtectionMechanism.rateSelectionModule = "^.rateSelection"
UsingCSMACAwithRTS.host[*].wlan[*].mac.dcf.prioritizeMulticast = false
#UsingCSMACAwithRTS.host[*].wlan[*].mac.dcf.rateControlType = rateControlType
#UsingCSMACAwithRTS.host[*].wlan[*].mac.dcf.rateSelection.controlFrameBitrate = controlBitrate
#UsingCSMACAwithRTS.host[*].wlan[*].mac.dcf.rateSelection.dataFrameBitrate = dataBitrate
#UsingCSMACAwithRTS.host[*].wlan[*].mac.dcf.rateSelection.mgmtFrameBitrate = mgmtBitrate
#UsingCSMACAwithRTS.host[*].wlan[*].mac.dcf.rateSelection.multicastFrameBitrate = multicastBitrate
UsingCSMACAwithRTS.host[*].wlan[*].mac.dcf.rateSelection.rateControlModule = "^.rateControl"
#UsingCSMACAwithRTS.host[*].wlan[*].mac.dcf.rateSelection.responseAckFrameBitrate = controlBitrate
UsingCSMACAwithRTS.host[*].wlan[*].mac.dcf.rateSelection.responseCtsFrameBitrate = -1bps
UsingCSMACAwithRTS.host[*].wlan[*].mac.dcf.recipientAckPolicy.rateSelectionModule = "^.rateSelection"
UsingCSMACAwithRTS.host[*].wlan[*].mac.dcf.recoveryProcedure.cwCalculatorModule = "^.channelAccess"
UsingCSMACAwithRTS.host[*].wlan[*].mac.dcf.recoveryProcedure.longRetryLimit = 4
UsingCSMACAwithRTS.host[*].wlan[*].mac.dcf.recoveryProcedure.rtsPolicyModule = "^.rtsPolicy"
UsingCSMACAwithRTS.host[*].wlan[*].mac.dcf.recoveryProcedure.shortRetryLimit = 7
UsingCSMACAwithRTS.host[*].wlan[*].mac.dcf.rtsPolicy.ctsTimeout = -1s
UsingCSMACAwithRTS.host[*].wlan[*].mac.dcf.rtsPolicy.rateSelectionModule = "^.rateSelection"
#UsingCSMACAwithRTS.host[*].wlan[*].mac.dcf.rtsPolicy.rtsThreshold = rtsThresholdBytes
UsingCSMACAwithRTS.host[*].wlan[*].mac.dcf.rxModule = "^.rx"
UsingCSMACAwithRTS.host[*].wlan[*].mac.dcf.txModule = "^.tx"
UsingCSMACAwithRTS.host[*].wlan[*].mac.EDCA = false
UsingCSMACAwithRTS.host[*].wlan[*].mac.hcf.ctsPolicy.rateSelectionModule = "^.rateSelection"
#UsingCSMACAwithRTS.host[*].wlan[*].mac.hcf.ctsPolicy.rxModule = "^." + rxModule
UsingCSMACAwithRTS.host[*].wlan[*].mac.hcf.edca.edcaf[*].accessCategory = "AC_BE"
UsingCSMACAwithRTS.host[*].wlan[*].mac.hcf.edca.edcaf[*].accessCategory = "AC_BK"
UsingCSMACAwithRTS.host[*].wlan[*].mac.hcf.edca.edcaf[*].accessCategory = "AC_VI"
UsingCSMACAwithRTS.host[*].wlan[*].mac.hcf.edca.edcaf[*].accessCategory = "AC_VO"
UsingCSMACAwithRTS.host[*].wlan[*].mac.hcf.edca.edcaf[*].aifsn = -1
UsingCSMACAwithRTS.host[*].wlan[*].mac.hcf.edca.edcaf[*].collisionControllerModule = "^.collisionController"
UsingCSMACAwithRTS.host[*].wlan[*].mac.hcf.edca.edcaf[*].contention.backoffOptimization = true
UsingCSMACAwithRTS.host[*].wlan[*].mac.hcf.edca.edcaf[*].contention.initialChannelBusy = true
UsingCSMACAwithRTS.host[*].wlan[*].mac.hcf.edca.edcaf[*].cwMax = -1
UsingCSMACAwithRTS.host[*].wlan[*].mac.hcf.edca.edcaf[*].cwMin = -1
#UsingCSMACAwithRTS.host[*].wlan[*].mac.hcf.edca.edcaf[*].rateSelectionModule = "^." + rateSelectionModule
#UsingCSMACAwithRTS.host[*].wlan[*].mac.hcf.edca.edcaf[*].rxModule = "^." + rxModule
UsingCSMACAwithRTS.host[*].wlan[*].mac.hcf.edca.numEdcafs = numEdcafs
UsingCSMACAwithRTS.host[*].wlan[*].mac.hcf.edca.rateSelectionModule = "^.rateSelection"
#UsingCSMACAwithRTS.host[*].wlan[*].mac.hcf.edca.rxModule = "^." + rxModule
UsingCSMACAwithRTS.host[*].wlan[*].mac.hcf.edcaDataRecoveryProcedures[*].cwCalculatorModule = "^.edca.edcaf[" + string(index) + "]"
UsingCSMACAwithRTS.host[*].wlan[*].mac.hcf.edcaDataRecoveryProcedures[*].longRetryLimit = 4
UsingCSMACAwithRTS.host[*].wlan[*].mac.hcf.edcaDataRecoveryProcedures[*].rtsPolicyModule = "^.rtsPolicy"
UsingCSMACAwithRTS.host[*].wlan[*].mac.hcf.edcaDataRecoveryProcedures[*].shortRetryLimit = 7
UsingCSMACAwithRTS.host[*].wlan[*].mac.hcf.edcaMgmtAndNonQoSRecoveryProcedure.cwCalculatorModule = "^.edca.edcaf[1]"
UsingCSMACAwithRTS.host[*].wlan[*].mac.hcf.edcaMgmtAndNonQoSRecoveryProcedure.longRetryLimit = 4
UsingCSMACAwithRTS.host[*].wlan[*].mac.hcf.edcaMgmtAndNonQoSRecoveryProcedure.rtsPolicyModule = "^.rtsPolicy"
UsingCSMACAwithRTS.host[*].wlan[*].mac.hcf.edcaMgmtAndNonQoSRecoveryProcedure.shortRetryLimit = 7
UsingCSMACAwithRTS.host[*].wlan[*].mac.hcf.edcaTxopProcedures[*].txopLimit = -1s
UsingCSMACAwithRTS.host[*].wlan[*].mac.hcf.isBlockAckSupported = false
#UsingCSMACAwithRTS.host[*].wlan[*].mac.hcf.maxQueueSize = maxQueueSize
UsingCSMACAwithRTS.host[*].wlan[*].mac.hcf.numEdcafs = 4
UsingCSMACAwithRTS.host[*].wlan[*].mac.hcf.originatorAckPolicy.ackTimeout = -1s
UsingCSMACAwithRTS.host[*].wlan[*].mac.hcf.originatorAckPolicy.blockAckReqTreshold = 5
UsingCSMACAwithRTS.host[*].wlan[*].mac.hcf.originatorAckPolicy.blockAckTimeout = -1s
UsingCSMACAwithRTS.host[*].wlan[*].mac.hcf.originatorAckPolicy.maxBlockAckPolicyFrameLength = 1000B
UsingCSMACAwithRTS.host[*].wlan[*].mac.hcf.originatorAckPolicy.rateSelectionModule = "^.rateSelection"
UsingCSMACAwithRTS.host[*].wlan[*].mac.hcf.originatorBlockAckAgreementPolicy.aMsduSupported = true
UsingCSMACAwithRTS.host[*].wlan[*].mac.hcf.originatorBlockAckAgreementPolicy.blockAckTimeoutValue = 0s
UsingCSMACAwithRTS.host[*].wlan[*].mac.hcf.originatorBlockAckAgreementPolicy.delayedAckPolicySupported = false
UsingCSMACAwithRTS.host[*].wlan[*].mac.hcf.originatorBlockAckAgreementPolicy.maximumAllowedBufferSize = 64
UsingCSMACAwithRTS.host[*].wlan[*].mac.hcf.originatorBlockAckAgreementPolicy.originatorAckPolicyModule = "^.originatorAckPolicy"
UsingCSMACAwithRTS.host[*].wlan[*].mac.hcf.originatorMacDataService.aMsduAggregationPolicyType = "BasicMsduAggregationPolicy"
UsingCSMACAwithRTS.host[*].wlan[*].mac.hcf.originatorMacDataService.fragmentationPolicy.fragmentationThreshold = 1500B
UsingCSMACAwithRTS.host[*].wlan[*].mac.hcf.originatorMacDataService.fragmentationPolicyType = "BasicFragmentationPolicy"
UsingCSMACAwithRTS.host[*].wlan[*].mac.hcf.originatorMacDataService.msduAggregationPolicy.aggregationLengthThreshold = -1
UsingCSMACAwithRTS.host[*].wlan[*].mac.hcf.originatorMacDataService.msduAggregationPolicy.maxAMsduSize = 4065
UsingCSMACAwithRTS.host[*].wlan[*].mac.hcf.originatorMacDataService.msduAggregationPolicy.qOsCheck = true
UsingCSMACAwithRTS.host[*].wlan[*].mac.hcf.originatorMacDataService.msduAggregationPolicy.subframeNumThreshold = -1
UsingCSMACAwithRTS.host[*].wlan[*].mac.hcf.prioritizeMulticast = false
#UsingCSMACAwithRTS.host[*].wlan[*].mac.hcf.rateControlType = rateControlType
#UsingCSMACAwithRTS.host[*].wlan[*].mac.hcf.rateSelection.controlFrameBitrate = controlBitrate
#UsingCSMACAwithRTS.host[*].wlan[*].mac.hcf.rateSelection.dataFrameBitrate = dataBitrate
#UsingCSMACAwithRTS.host[*].wlan[*].mac.hcf.rateSelection.mgmtFrameBitrate = mgmtBitrate
#UsingCSMACAwithRTS.host[*].wlan[*].mac.hcf.rateSelection.multicastFrameBitrate = multicastBitrate
UsingCSMACAwithRTS.host[*].wlan[*].mac.hcf.rateSelection.rateControlModule = "^.rateControl"
#UsingCSMACAwithRTS.host[*].wlan[*].mac.hcf.rateSelection.responseAckFrameBitrate = controlBitrate
UsingCSMACAwithRTS.host[*].wlan[*].mac.hcf.rateSelection.responseBlockAckFrameBitrate = -1bps
UsingCSMACAwithRTS.host[*].wlan[*].mac.hcf.rateSelection.responseCtsFrameBitrate = -1bps
UsingCSMACAwithRTS.host[*].wlan[*].mac.hcf.recipientAckPolicy.rateSelectionModule = "^.rateSelection"
UsingCSMACAwithRTS.host[*].wlan[*].mac.hcf.recipientBlockAckAgreementPolicy.aMsduSupported = true
UsingCSMACAwithRTS.host[*].wlan[*].mac.hcf.recipientBlockAckAgreementPolicy.blockAckTimeoutValue = 0s
UsingCSMACAwithRTS.host[*].wlan[*].mac.hcf.recipientBlockAckAgreementPolicy.delayedAckPolicySupported = false
UsingCSMACAwithRTS.host[*].wlan[*].mac.hcf.recipientBlockAckAgreementPolicy.maximumAllowedBufferSize = 64
UsingCSMACAwithRTS.host[*].wlan[*].mac.hcf.rtsPolicy.ctsTimeout = -1s
UsingCSMACAwithRTS.host[*].wlan[*].mac.hcf.rtsPolicy.rateSelectionModule = "^.rateSelection"
UsingCSMACAwithRTS.host[*].wlan[*].mac.hcf.rtsPolicy.rtsThreshold = 2346B
UsingCSMACAwithRTS.host[*].wlan[*].mac.hcf.rxModule = "^.rx"
UsingCSMACAwithRTS.host[*].wlan[*].mac.hcf.singleProtectionMechanism.rateSelectionModule = "^.rateSelection"
UsingCSMACAwithRTS.host[*].wlan[*].mac.hcf.txModule = "^.tx"
UsingCSMACAwithRTS.host[*].wlan[*].mac.initialRateControlRate = -1bps
#UsingCSMACAwithRTS.host[*].wlan[*].mac.interfaceTableModule = absPath(interfaceTableModule) 
UsingCSMACAwithRTS.host[*].wlan[*].mac.maxQueueSize = 14
#UsingCSMACAwithRTS.host[*].wlan[*].mac.mgmtBitrate = basicBitrate 
UsingCSMACAwithRTS.host[*].wlan[*].mac.modeSet = opMode
UsingCSMACAwithRTS.host[*].wlan[*].mac.mtu = 2304B
UsingCSMACAwithRTS.host[*].wlan[*].mac.multicastBitrate = 2Mbps
UsingCSMACAwithRTS.host[*].wlan[*].mac.opMode = opMode
UsingCSMACAwithRTS.host[*].wlan[*].mac.prioritizeMulticast = false
UsingCSMACAwithRTS.host[*].wlan[*].mac.qosStation = false
UsingCSMACAwithRTS.host[*].wlan[*].mac.rateControlType = ""
UsingCSMACAwithRTS.host[*].wlan[*].mac.retryLimit = -1
UsingCSMACAwithRTS.host[*].wlan[*].mac.rng-0 = 2
UsingCSMACAwithRTS.host[*].wlan[*].mac.rtsThresholdBytes = 100B
UsingCSMACAwithRTS.host[*].wlan[*].mac.rx.statisticsModule = ""
UsingCSMACAwithRTS.host[*].wlan[*].mac.slotTime = -1s
UsingCSMACAwithRTS.host[*].wlan[*].mac.tx.rxModule = "^.rx"
UsingCSMACAwithRTS.host[*].wlan[*].mac.tx.statisticsModule = ""
UsingCSMACAwithRTS.host[*].wlan[*].mac.TXOP0 = 0s
UsingCSMACAwithRTS.host[*].wlan[*].mac.TXOP1 = 0s
UsingCSMACAwithRTS.host[*].wlan[*].mac.TXOP2 = 3.008ms
UsingCSMACAwithRTS.host[*].wlan[*].mac.TXOP3 = 1.504ms
UsingCSMACAwithRTS.host[*].wlan[*].macType = "Ieee80211CompatibleMac"
UsingCSMACAwithRTS.host[*].wlan[*].mgmt.macModule = "^.mac"
UsingCSMACAwithRTS.host[*].wlan[*].mgmtType = "Ieee80211MgmtAdhoc"
UsingCSMACAwithRTS.host[*].wlan[*].opMode = "g(mixed)"
UsingCSMACAwithRTS.host[*].wlan[*].radio.antenna.mobilityModule = ".mobility"
UsingCSMACAwithRTS.host[*].wlan[*].radio.antenna.numAntennas = 1
UsingCSMACAwithRTS.host[*].wlan[*].radio.antennaType = "IsotropicAntenna"
UsingCSMACAwithRTS.host[*].wlan[*].radio.bandName = "2.4 GHz"
UsingCSMACAwithRTS.host[*].wlan[*].radio.bandwidth = 2MHz
UsingCSMACAwithRTS.host[*].wlan[*].radio.carrierFrequency = 2.412GHz
UsingCSMACAwithRTS.host[*].wlan[*].radio.channelNumber = 0
UsingCSMACAwithRTS.host[*].wlan[*].radio.displayCommunicationRange = false
UsingCSMACAwithRTS.host[*].wlan[*].radio.displayInterferenceRange = false
UsingCSMACAwithRTS.host[*].wlan[*].radio.energyConsumerType = "StateBasedEpEnergyConsumer"
#UsingCSMACAwithRTS.host[*].wlan[*].radio.energySourceModule = absPath(energySourceModule) 
#UsingCSMACAwithRTS.host[*].wlan[*].radio.opMode = opMode
UsingCSMACAwithRTS.host[*].wlan[*].radio.radioMediumModule = "radioMedium"
#UsingCSMACAwithRTS.host[*].wlan[*].radio.receiver.bandName = bandName
#UsingCSMACAwithRTS.host[*].wlan[*].radio.receiver.bandwidth = bandwidth
#UsingCSMACAwithRTS.host[*].wlan[*].radio.receiver.carrierFrequency = carrierFrequency
#UsingCSMACAwithRTS.host[*].wlan[*].radio.receiver.channelNumber = channelNumber
UsingCSMACAwithRTS.host[*].wlan[*].radio.receiver.energyDetection = -85dBm
UsingCSMACAwithRTS.host[*].wlan[*].radio.receiver.errorModelType = "Ieee80211NistErrorModel"
UsingCSMACAwithRTS.host[*].wlan[*].radio.receiver.modulation = "BPSK"
#UsingCSMACAwithRTS.host[*].wlan[*].radio.receiver.opMode = opMode
UsingCSMACAwithRTS.host[*].wlan[*].radio.receiver.sensitivity = -85dBm
UsingCSMACAwithRTS.host[*].wlan[*].radio.receiver.snirThreshold = 4dB
UsingCSMACAwithRTS.host[*].wlan[*].radio.receiverType = "Ieee80211ScalarReceiver"
UsingCSMACAwithRTS.host[*].wlan[*].radio.separateReceptionParts = false
UsingCSMACAwithRTS.host[*].wlan[*].radio.separateTransmissionParts = false
UsingCSMACAwithRTS.host[*].wlan[*].radio.switchingTimes = "ms 0 0 0 0 0 0 0 0 0 0 0 0 0 0 0 0 0 0 0 0 0 0 0 0 0"
#UsingCSMACAwithRTS.host[*].wlan[*].radio.transmitter.bandName = bandName
#UsingCSMACAwithRTS.host[*].wlan[*].radio.transmitter.bandwidth = bandwidth
#UsingCSMACAwithRTS.host[*].wlan[*].radio.transmitter.bitrate = bitrate
#UsingCSMACAwithRTS.host[*].wlan[*].radio.transmitter.carrierFrequency = carrierFrequency
#UsingCSMACAwithRTS.host[*].wlan[*].radio.transmitter.channelNumber = channelNumber
UsingCSMACAwithRTS.host[*].wlan[*].radio.transmitter.headerBitLength = 192b
UsingCSMACAwithRTS.host[*].wlan[*].radio.transmitter.modulation = "BPSK"
#UsingCSMACAwithRTS.host[*].wlan[*].radio.transmitter.opMode = opMode
UsingCSMACAwithRTS.host[*].wlan[*].radio.transmitter.power = 20mW
UsingCSMACAwithRTS.host[*].wlan[*].radio.transmitter.preambleDuration = 0s/0
UsingCSMACAwithRTS.host[*].wlan[*].radio.transmitterType = "Ieee80211ScalarTransmitter"
UsingCSMACAwithRTS.host[*].wlan[*].radioType = "Ieee80211ScalarRadio"
UsingCSMACAwithRTS.host[*].wlan[*].typename = "Ieee80211Nic"
#UsingCSMACAwithRTS.host[0].numPingApps = 0 
UsingCSMACAwithRTS.host[0].udpApp[*].localPort = 5000
UsingCSMACAwithRTS.host[0].udpApp[*].typename = "UDPSink"
#UsingCSMACAwithRTS.host[1].numPingApps = 1 
#UsingCSMACAwithRTS.host[1].pingApp[*].destAddr = "host[0]" 
UsingCSMACAwithRTS.host[1].udpApp[*].destAddresses = "host[0]"
UsingCSMACAwithRTS.host[1].udpApp[*].destPort = 5000
UsingCSMACAwithRTS.host[1].udpApp[*].messageLength = 1000B
UsingCSMACAwithRTS.host[1].udpApp[*].packetName = "UDPData"
UsingCSMACAwithRTS.host[1].udpApp[*].sendInterval = exponential(10ms)
UsingCSMACAwithRTS.host[1].udpApp[*].typename = "UDPBasicApp"
#UsingCSMACAwithRTS.host[2].numPingApps = 0 
UsingCSMACAwithRTS.host[2].udpApp[*].localPort = 5000
UsingCSMACAwithRTS.host[2].udpApp[*].typename = "UDPSink"
#UsingCSMACAwithRTS.host[3].numPingApps = 1 
#UsingCSMACAwithRTS.host[3].pingApp[*].destAddr = "host[2]" 
UsingCSMACAwithRTS.host[3].udpApp[*].destAddresses = "host[2]"
UsingCSMACAwithRTS.host[3].udpApp[*].destPort = 5000
UsingCSMACAwithRTS.host[3].udpApp[*].messageLength = 1000B
UsingCSMACAwithRTS.host[3].udpApp[*].packetName = "UDPData"
UsingCSMACAwithRTS.host[3].udpApp[*].sendInterval = exponential(10ms)
UsingCSMACAwithRTS.host[3].udpApp[*].typename = "UDPBasicApp"
UsingCSMACAwithRTS.numHosts = ${numHosts=2,4,10,20,50,100,200,500}
UsingCSMACAwithRTS.radioMedium.analogModelType = "ScalarAnalogModel"
UsingCSMACAwithRTS.radioMedium.backgroundNoise.power = -110dBm
UsingCSMACAwithRTS.radioMedium.backgroundNoiseType = "IsotropicScalarBackgroundNoise"
UsingCSMACAwithRTS.radioMedium.communicationCacheType = "VectorCommunicationCache"
UsingCSMACAwithRTS.radioMedium.listeningFilter = false
UsingCSMACAwithRTS.radioMedium.macAddressFilter = false
UsingCSMACAwithRTS.radioMedium.mediumLimitCache.carrierFrequency = 2.4GHz
UsingCSMACAwithRTS.radioMedium.mediumLimitCache.maxAntennaGain = 0dB
UsingCSMACAwithRTS.radioMedium.mediumLimitCache.maxCommunicationRange = 0m/0